@<TRIPOS>MOLECULE
JZ4
 22 22 0 0 0
SMALL
GASTEIGER

@<TRIPOS>ATOM
      1 C1          3.7430   -0.3020    0.2410 C.3     1  JZ4        -0.0650
      2 C2          2.2550   -0.2800    0.5990 C.3     1  JZ4        -0.0518
      3 C3          1.4210   -0.3150   -0.6840 C.3     1  JZ4        -0.0245
      4 C4         -0.0440   -0.2930   -0.3310 C.ar    1  JZ4        -0.0060
      5 C9         -0.6840    0.9160   -0.1000 C.ar    1  JZ4         0.1200
      6 O10         0.0070    2.0820   -0.1950 O.3     1  JZ4        -0.5065
      7 H22         0.4100    2.3700    0.6350 H       1  JZ4         0.2921
      8 C8         -2.0340    0.9330    0.2200 C.ar    1  JZ4        -0.0199
      9 H21        -2.5360    1.8720    0.3960 H       1  JZ4         0.0654
     10 C5         -0.7490   -1.4770   -0.2330 C.ar    1  JZ4        -0.0551
     11 H18        -0.2500   -2.4180   -0.4090 H       1  JZ4         0.0621
     12 C6         -2.0930   -1.4580    0.0910 C.ar    1  JZ4        -0.0613
     13 H19        -2.6420   -2.3840    0.1670 H       1  JZ4         0.0618
     14 C7         -2.7350   -0.2540    0.3170 C.ar    1  JZ4        -0.0583
     15 H20        -3.7850   -0.2420    0.5700 H       1  JZ4         0.0619
     16 H           4.3260   -0.2775    1.1379 H       1  JZ4         0.0230
     17 H           3.9778    0.5513   -0.3604 H       1  JZ4         0.0230
     18 H           3.9654   -1.1951   -0.3047 H       1  JZ4         0.0230
     19 H           2.0326    0.6131    1.1447 H       1  JZ4         0.0266
     20 H           2.0202   -1.1333    1.2004 H       1  JZ4         0.0266
     21 H           1.6431   -1.2082   -1.2296 H       1  JZ4         0.0314
     22 H           1.6559    0.5380   -1.2858 H       1  JZ4         0.0314
@<TRIPOS>BOND
     1     1     2    1
     2     2     3    1
     3     3     4    1
     4     4     5   ar
     5     4    10   ar
     6     5     6    1
     7     5     8   ar
     8     6     7    1
     9     8     9    1
    10     8    14   ar
    11    10    11    1
    12    10    12   ar
    13    12    13    1
    14    12    14   ar
    15    14    15    1
    16     1    16    1
    17     1    17    1
    18     1    18    1
    19     2    19    1
    20     2    20    1
    21     3    21    1
    22     3    22    1
